opendss_models_for_tests/load_pv_battery_self_consumption_invcon/Main.dss
Clear All
Set DefaultBaseFrequency=50
New circuit.Summer_Weekday_Case
basekv=11 pu=1.00 MVAsc3=3000 MVAsc1=3000 baseMVA=0.001
Redirect EfficiencyCurves.txt
Redirect Transformer.txt
Redirect LineCode.txt
Redirect LoadShapes.txt
Redirect Lines.txt
Redirect Loads.txt
Redirect PVShapes.txt
Redirect PVShapesMaximum-Self-Consumption.txt
Redirect PVSystems.txt
Redirect PVSystemsMaximum-Self-Consumption.txt
Redirect InvControl.txt
new monitor.pv3 element=PVSystem.PV_3 mode=33
Set voltagebases=[11  0.4]
Calcvoltagebases
set mode=yearly
set stepsize=30m
set number=48
solve