opendss_models_for_tests/load_pv_battery_self_consumption_invcon/Loads.txt
New Load.Load_1 phases=1 bus1=34.1 kV=0.23 kW=0.387 PF=1.0 vminpu=0.6 vmaxpu=2 yearly=Shape_1
New Load.Load_2 phases=1 bus1=47.2 kV=0.23 kW=0.387 PF=1.0 vminpu=0.6 vmaxpu=2 yearly=Shape_2
New Load.Load_3 phases=1 bus1=70.1 kV=0.23 kW=0.387 PF=1.0 vminpu=0.6 vmaxpu=2 yearly=Shape_3
New Load.Load_4 phases=1 bus1=73.1 kV=0.23 kW=0.387 PF=1.0 vminpu=0.6 vmaxpu=2 yearly=Shape_4
New Load.Load_5 phases=1 bus1=74.1 kV=0.23 kW=0.387 PF=1.0 vminpu=0.6 vmaxpu=2 yearly=Shape_5
New Load.Load_6 phases=1 bus1=83.2 kV=0.23 kW=0.387 PF=1.0 vminpu=0.6 vmaxpu=2 yearly=Shape_6
New Load.Load_7 phases=1 bus1=178.2 kV=0.23 kW=0.387 PF=1.0 vminpu=0.6 vmaxpu=2 yearly=Shape_7
New Load.Load_8 phases=1 bus1=208.3 kV=0.23 kW=0.387 PF=1.0 vminpu=0.6 vmaxpu=2 yearly=Shape_8
New Load.Load_9 phases=1 bus1=225.1 kV=0.23 kW=0.387 PF=1.0 vminpu=0.6 vmaxpu=2 yearly=Shape_9
New Load.Load_10 phases=1 bus1=248.2 kV=0.23 kW=0.387 PF=1.0 vminpu=0.6 vmaxpu=2 yearly=Shape_10
New Load.Load_11 phases=1 bus1=249.2 kV=0.23 kW=0.387 PF=1.0 vminpu=0.6 vmaxpu=2 yearly=Shape_11
New Load.Load_12 phases=1 bus1=264.3 kV=0.23 kW=0.387 PF=1.0 vminpu=0.6 vmaxpu=2 yearly=Shape_12
New Load.Load_13 phases=1 bus1=276.2 kV=0.23 kW=0.387 PF=1.0 vminpu=0.6 vmaxpu=2 yearly=Shape_13
New Load.Load_14 phases=1 bus1=289.1 kV=0.23 kW=0.387 PF=1.0 vminpu=0.6 vmaxpu=2 yearly=Shape_14
New Load.Load_15 phases=1 bus1=314.2 kV=0.23 kW=0.387 PF=1.0 vminpu=0.6 vmaxpu=2 yearly=Shape_15
New Load.Load_16 phases=1 bus1=320.3 kV=0.23 kW=0.387 PF=1.0 vminpu=0.6 vmaxpu=2 yearly=Shape_16
New Load.Load_17 phases=1 bus1=327.3 kV=0.23 kW=0.387 PF=1.0 vminpu=0.6 vmaxpu=2 yearly=Shape_17
New Load.Load_18 phases=1 bus1=337.3 kV=0.23 kW=0.387 PF=1.0 vminpu=0.6 vmaxpu=2 yearly=Shape_18
New Load.Load_19 phases=1 bus1=342.3 kV=0.23 kW=0.387 PF=1.0 vminpu=0.6 vmaxpu=2 yearly=Shape_19
New Load.Load_20 phases=1 bus1=349.1 kV=0.23 kW=0.387 PF=1.0 vminpu=0.6 vmaxpu=2 yearly=Shape_20
New Load.Load_21 phases=1 bus1=387.1 kV=0.23 kW=0.387 PF=1.0 vminpu=0.6 vmaxpu=2 yearly=Shape_21
New Load.Load_22 phases=1 bus1=388.1 kV=0.23 kW=0.387 PF=1.0 vminpu=0.6 vmaxpu=2 yearly=Shape_22
New Load.Load_23 phases=1 bus1=406.2 kV=0.23 kW=0.387 PF=1.0 vminpu=0.6 vmaxpu=2 yearly=Shape_23
New Load.Load_24 phases=1 bus1=458.3 kV=0.23 kW=0.387 PF=1.0 vminpu=0.6 vmaxpu=2 yearly=Shape_24
New Load.Load_25 phases=1 bus1=502.1 kV=0.23 kW=0.387 PF=1.0 vminpu=0.6 vmaxpu=2 yearly=Shape_25
New Load.Load_26 phases=1 bus1=522.2 kV=0.23 kW=0.387 PF=1.0 vminpu=0.6 vmaxpu=2 yearly=Shape_26
New Load.Load_27 phases=1 bus1=539.3 kV=0.23 kW=0.387 PF=1.0 vminpu=0.6 vmaxpu=2 yearly=Shape_27
New Load.Load_28 phases=1 bus1=556.3 kV=0.23 kW=0.387 PF=1.0 vminpu=0.6 vmaxpu=2 yearly=Shape_28
New Load.Load_29 phases=1 bus1=562.1 kV=0.23 kW=0.387 PF=1.0 vminpu=0.6 vmaxpu=2 yearly=Shape_29
New Load.Load_30 phases=1 bus1=563.1 kV=0.23 kW=0.387 PF=1.0 vminpu=0.6 vmaxpu=2 yearly=Shape_30
New Load.Load_31 phases=1 bus1=611.1 kV=0.23 kW=0.387 PF=1.0 vminpu=0.6 vmaxpu=2 yearly=Shape_31
New Load.Load_32 phases=1 bus1=614.3 kV=0.23 kW=0.387 PF=1.0 vminpu=0.6 vmaxpu=2 yearly=Shape_32
New Load.Load_33 phases=1 bus1=619.3 kV=0.23 kW=0.387 PF=1.0 vminpu=0.6 vmaxpu=2 yearly=Shape_33
New Load.Load_34 phases=1 bus1=629.1 kV=0.23 kW=0.387 PF=1.0 vminpu=0.6 vmaxpu=2 yearly=Shape_34
New Load.Load_35 phases=1 bus1=639.2 kV=0.23 kW=0.387 PF=1.0 vminpu=0.6 vmaxpu=2 yearly=Shape_35
New Load.Load_36 phases=1 bus1=676.2 kV=0.23 kW=0.387 PF=1.0 vminpu=0.6 vmaxpu=2 yearly=Shape_36
New Load.Load_37 phases=1 bus1=682.2 kV=0.23 kW=0.387 PF=1.0 vminpu=0.6 vmaxpu=2 yearly=Shape_37
New Load.Load_38 phases=1 bus1=688.2 kV=0.23 kW=0.387 PF=1.0 vminpu=0.6 vmaxpu=2 yearly=Shape_38
New Load.Load_39 phases=1 bus1=701.3 kV=0.23 kW=0.387 PF=1.0 vminpu=0.6 vmaxpu=2 yearly=Shape_39
New Load.Load_40 phases=1 bus1=702.2 kV=0.23 kW=0.387 PF=1.0 vminpu=0.6 vmaxpu=2 yearly=Shape_40
New Load.Load_41 phases=1 bus1=755.2 kV=0.23 kW=0.387 PF=1.0 vminpu=0.6 vmaxpu=2 yearly=Shape_41
New Load.Load_42 phases=1 bus1=778.3 kV=0.23 kW=0.387 PF=1.0 vminpu=0.6 vmaxpu=2 yearly=Shape_42
New Load.Load_43 phases=1 bus1=780.3 kV=0.23 kW=0.387 PF=1.0 vminpu=0.6 vmaxpu=2 yearly=Shape_43
New Load.Load_44 phases=1 bus1=785.2 kV=0.23 kW=0.387 PF=1.0 vminpu=0.6 vmaxpu=2 yearly=Shape_44
New Load.Load_45 phases=1 bus1=813.2 kV=0.23 kW=0.387 PF=1.0 vminpu=0.6 vmaxpu=2 yearly=Shape_45
New Load.Load_46 phases=1 bus1=817.1 kV=0.23 kW=0.387 PF=1.0 vminpu=0.6 vmaxpu=2 yearly=Shape_46
New Load.Load_47 phases=1 bus1=835.3 kV=0.23 kW=0.387 PF=1.0 vminpu=0.6 vmaxpu=2 yearly=Shape_47
New Load.Load_48 phases=1 bus1=860.1 kV=0.23 kW=0.387 PF=1.0 vminpu=0.6 vmaxpu=2 yearly=Shape_48
New Load.Load_49 phases=1 bus1=861.1 kV=0.23 kW=0.387 PF=1.0 vminpu=0.6 vmaxpu=2 yearly=Shape_49
New Load.Load_50 phases=1 bus1=886.2 kV=0.23 kW=0.387 PF=1.0 vminpu=0.6 vmaxpu=2 yearly=Shape_50
New Load.Load_51 phases=1 bus1=896.1 kV=0.23 kW=0.387 PF=1.0 vminpu=0.6 vmaxpu=2 yearly=Shape_51
New Load.Load_52 phases=1 bus1=898.1 kV=0.23 kW=0.387 PF=1.0 vminpu=0.6 vmaxpu=2 yearly=Shape_52
New Load.Load_53 phases=1 bus1=899.2 kV=0.23 kW=0.387 PF=1.0 vminpu=0.6 vmaxpu=2 yearly=Shape_53
New Load.Load_54 phases=1 bus1=900.1 kV=0.23 kW=0.387 PF=1.0 vminpu=0.6 vmaxpu=2 yearly=Shape_54
New Load.Load_55 phases=1 bus1=906.1 kV=0.23 kW=0.387 PF=1.0 vminpu=0.6 vmaxpu=2 yearly=Shape_55
New Load.Load_56 phases=1 bus1=34.2 kV=0.23 kW=0.387 PF=1.0 vminpu=0.6 vmaxpu=2 yearly=Shape_56
New Load.Load_57 phases=1 bus1=47.3 kV=0.23 kW=0.387 PF=1.0 vminpu=0.6 vmaxpu=2 yearly=Shape_57
New Load.Load_58 phases=1 bus1=70.2 kV=0.23 kW=0.387 PF=1.0 vminpu=0.6 vmaxpu=2 yearly=Shape_58
New Load.Load_59 phases=1 bus1=73.2 kV=0.23 kW=0.387 PF=1.0 vminpu=0.6 vmaxpu=2 yearly=Shape_59
New Load.Load_60 phases=1 bus1=74.2 kV=0.23 kW=0.387 PF=1.0 vminpu=0.6 vmaxpu=2 yearly=Shape_60
New Load.Load_61 phases=1 bus1=83.3 kV=0.23 kW=0.387 PF=1.0 vminpu=0.6 vmaxpu=2 yearly=Shape_61
New Load.Load_62 phases=1 bus1=178.3 kV=0.23 kW=0.387 PF=1.0 vminpu=0.6 vmaxpu=2 yearly=Shape_62
New Load.Load_63 phases=1 bus1=208.1 kV=0.23 kW=0.387 PF=1.0 vminpu=0.6 vmaxpu=2 yearly=Shape_63
New Load.Load_64 phases=1 bus1=225.2 kV=0.23 kW=0.387 PF=1.0 vminpu=0.6 vmaxpu=2 yearly=Shape_64
New Load.Load_65 phases=1 bus1=248.3 kV=0.23 kW=0.387 PF=1.0 vminpu=0.6 vmaxpu=2 yearly=Shape_65
New Load.Load_66 phases=1 bus1=249.3 kV=0.23 kW=0.387 PF=1.0 vminpu=0.6 vmaxpu=2 yearly=Shape_66
New Load.Load_67 phases=1 bus1=264.1 kV=0.23 kW=0.387 PF=1.0 vminpu=0.6 vmaxpu=2 yearly=Shape_67
New Load.Load_68 phases=1 bus1=276.3 kV=0.23 kW=0.387 PF=1.0 vminpu=0.6 vmaxpu=2 yearly=Shape_68
New Load.Load_69 phases=1 bus1=289.2 kV=0.23 kW=0.387 PF=1.0 vminpu=0.6 vmaxpu=2 yearly=Shape_69
New Load.Load_70 phases=1 bus1=314.3 kV=0.23 kW=0.387 PF=1.0 vminpu=0.6 vmaxpu=2 yearly=Shape_70
New Load.Load_71 phases=1 bus1=320.1 kV=0.23 kW=0.387 PF=1.0 vminpu=0.6 vmaxpu=2 yearly=Shape_71
New Load.Load_72 phases=1 bus1=327.1 kV=0.23 kW=0.387 PF=1.0 vminpu=0.6 vmaxpu=2 yearly=Shape_72
New Load.Load_73 phases=1 bus1=337.1 kV=0.23 kW=0.387 PF=1.0 vminpu=0.6 vmaxpu=2 yearly=Shape_73
New Load.Load_74 phases=1 bus1=342.1 kV=0.23 kW=0.387 PF=1.0 vminpu=0.6 vmaxpu=2 yearly=Shape_74
New Load.Load_75 phases=1 bus1=349.2 kV=0.23 kW=0.387 PF=1.0 vminpu=0.6 vmaxpu=2 yearly=Shape_75
New Load.Load_76 phases=1 bus1=387.2 kV=0.23 kW=0.387 PF=1.0 vminpu=0.6 vmaxpu=2 yearly=Shape_76
New Load.Load_77 phases=1 bus1=388.2 kV=0.23 kW=0.387 PF=1.0 vminpu=0.6 vmaxpu=2 yearly=Shape_77
New Load.Load_78 phases=1 bus1=406.3 kV=0.23 kW=0.387 PF=1.0 vminpu=0.6 vmaxpu=2 yearly=Shape_78
New Load.Load_79 phases=1 bus1=458.1 kV=0.23 kW=0.387 PF=1.0 vminpu=0.6 vmaxpu=2 yearly=Shape_79
New Load.Load_80 phases=1 bus1=502.2 kV=0.23 kW=0.387 PF=1.0 vminpu=0.6 vmaxpu=2 yearly=Shape_80
New Load.Load_81 phases=1 bus1=522.3 kV=0.23 kW=0.387 PF=1.0 vminpu=0.6 vmaxpu=2 yearly=Shape_81
New Load.Load_82 phases=1 bus1=539.1 kV=0.23 kW=0.387 PF=1.0 vminpu=0.6 vmaxpu=2 yearly=Shape_82
New Load.Load_83 phases=1 bus1=556.1 kV=0.23 kW=0.387 PF=1.0 vminpu=0.6 vmaxpu=2 yearly=Shape_83
New Load.Load_84 phases=1 bus1=562.2 kV=0.23 kW=0.387 PF=1.0 vminpu=0.6 vmaxpu=2 yearly=Shape_84
New Load.Load_85 phases=1 bus1=563.2 kV=0.23 kW=0.387 PF=1.0 vminpu=0.6 vmaxpu=2 yearly=Shape_85
New Load.Load_86 phases=1 bus1=611.2 kV=0.23 kW=0.387 PF=1.0 vminpu=0.6 vmaxpu=2 yearly=Shape_86
New Load.Load_87 phases=1 bus1=614.1 kV=0.23 kW=0.387 PF=1.0 vminpu=0.6 vmaxpu=2 yearly=Shape_87
New Load.Load_88 phases=1 bus1=619.1 kV=0.23 kW=0.387 PF=1.0 vminpu=0.6 vmaxpu=2 yearly=Shape_88
New Load.Load_89 phases=1 bus1=629.2 kV=0.23 kW=0.387 PF=1.0 vminpu=0.6 vmaxpu=2 yearly=Shape_89
New Load.Load_90 phases=1 bus1=639.3 kV=0.23 kW=0.387 PF=1.0 vminpu=0.6 vmaxpu=2 yearly=Shape_90
New Load.Load_91 phases=1 bus1=676.3 kV=0.23 kW=0.387 PF=1.0 vminpu=0.6 vmaxpu=2 yearly=Shape_91
New Load.Load_92 phases=1 bus1=682.3 kV=0.23 kW=0.387 PF=1.0 vminpu=0.6 vmaxpu=2 yearly=Shape_92
New Load.Load_93 phases=1 bus1=688.3 kV=0.23 kW=0.387 PF=1.0 vminpu=0.6 vmaxpu=2 yearly=Shape_93
New Load.Load_94 phases=1 bus1=701.1 kV=0.23 kW=0.387 PF=1.0 vminpu=0.6 vmaxpu=2 yearly=Shape_94
New Load.Load_95 phases=1 bus1=702.3 kV=0.23 kW=0.387 PF=1.0 vminpu=0.6 vmaxpu=2 yearly=Shape_95
New Load.Load_96 phases=1 bus1=755.3 kV=0.23 kW=0.387 PF=1.0 vminpu=0.6 vmaxpu=2 yearly=Shape_96
New Load.Load_97 phases=1 bus1=778.1 kV=0.23 kW=0.387 PF=1.0 vminpu=0.6 vmaxpu=2 yearly=Shape_97
New Load.Load_98 phases=1 bus1=780.1 kV=0.23 kW=0.387 PF=1.0 vminpu=0.6 vmaxpu=2 yearly=Shape_98
New Load.Load_99 phases=1 bus1=785.3 kV=0.23 kW=0.387 PF=1.0 vminpu=0.6 vmaxpu=2 yearly=Shape_99
New Load.Load_100 phases=1 bus1=813.3 kV=0.23 kW=0.387 PF=1.0 vminpu=0.6 vmaxpu=2 yearly=Shape_100
New Load.Load_101 phases=1 bus1=817.2 kV=0.23 kW=0.387 PF=1.0 vminpu=0.6 vmaxpu=2 yearly=Shape_101
New Load.Load_102 phases=1 bus1=835.1 kV=0.23 kW=0.387 PF=1.0 vminpu=0.6 vmaxpu=2 yearly=Shape_102
New Load.Load_103 phases=1 bus1=860.2 kV=0.23 kW=0.387 PF=1.0 vminpu=0.6 vmaxpu=2 yearly=Shape_103
New Load.Load_104 phases=1 bus1=861.2 kV=0.23 kW=0.387 PF=1.0 vminpu=0.6 vmaxpu=2 yearly=Shape_104
New Load.Load_105 phases=1 bus1=886.3 kV=0.23 kW=0.387 PF=1.0 vminpu=0.6 vmaxpu=2 yearly=Shape_105
New Load.Load_106 phases=1 bus1=896.2 kV=0.23 kW=0.387 PF=1.0 vminpu=0.6 vmaxpu=2 yearly=Shape_106
New Load.Load_107 phases=1 bus1=898.2 kV=0.23 kW=0.387 PF=1.0 vminpu=0.6 vmaxpu=2 yearly=Shape_107
New Load.Load_108 phases=1 bus1=899.3 kV=0.23 kW=0.387 PF=1.0 vminpu=0.6 vmaxpu=2 yearly=Shape_108
New Load.Load_109 phases=1 bus1=900.2 kV=0.23 kW=0.387 PF=1.0 vminpu=0.6 vmaxpu=2 yearly=Shape_109
New Load.Load_110 phases=1 bus1=906.2 kV=0.23 kW=0.387 PF=1.0 vminpu=0.6 vmaxpu=2 yearly=Shape_110
New Load.Load_111 phases=1 bus1=34.3 kV=0.23 kW=0.387 PF=1.0 vminpu=0.6 vmaxpu=2 yearly=Shape_111
New Load.Load_112 phases=1 bus1=47.1 kV=0.23 kW=0.387 PF=1.0 vminpu=0.6 vmaxpu=2 yearly=Shape_112
New Load.Load_113 phases=1 bus1=70.3 kV=0.23 kW=0.387 PF=1.0 vminpu=0.6 vmaxpu=2 yearly=Shape_113
New Load.Load_114 phases=1 bus1=73.3 kV=0.23 kW=0.387 PF=1.0 vminpu=0.6 vmaxpu=2 yearly=Shape_114
New Load.Load_115 phases=1 bus1=74.3 kV=0.23 kW=0.387 PF=1.0 vminpu=0.6 vmaxpu=2 yearly=Shape_115
New Load.Load_116 phases=1 bus1=83.1 kV=0.23 kW=0.387 PF=1.0 vminpu=0.6 vmaxpu=2 yearly=Shape_116
New Load.Load_117 phases=1 bus1=178.1 kV=0.23 kW=0.387 PF=1.0 vminpu=0.6 vmaxpu=2 yearly=Shape_117
New Load.Load_118 phases=1 bus1=208.2 kV=0.23 kW=0.387 PF=1.0 vminpu=0.6 vmaxpu=2 yearly=Shape_118
New Load.Load_119 phases=1 bus1=225.3 kV=0.23 kW=0.387 PF=1.0 vminpu=0.6 vmaxpu=2 yearly=Shape_119
New Load.Load_120 phases=1 bus1=248.1 kV=0.23 kW=0.387 PF=1.0 vminpu=0.6 vmaxpu=2 yearly=Shape_120
New Load.Load_121 phases=1 bus1=249.1 kV=0.23 kW=0.387 PF=1.0 vminpu=0.6 vmaxpu=2 yearly=Shape_121
New Load.Load_122 phases=1 bus1=264.2 kV=0.23 kW=0.387 PF=1.0 vminpu=0.6 vmaxpu=2 yearly=Shape_122
New Load.Load_123 phases=1 bus1=276.1 kV=0.23 kW=0.387 PF=1.0 vminpu=0.6 vmaxpu=2 yearly=Shape_123
New Load.Load_124 phases=1 bus1=289.3 kV=0.23 kW=0.387 PF=1.0 vminpu=0.6 vmaxpu=2 yearly=Shape_124
New Load.Load_125 phases=1 bus1=314.1 kV=0.23 kW=0.387 PF=1.0 vminpu=0.6 vmaxpu=2 yearly=Shape_125
New Load.Load_126 phases=1 bus1=320.2 kV=0.23 kW=0.387 PF=1.0 vminpu=0.6 vmaxpu=2 yearly=Shape_126
New Load.Load_127 phases=1 bus1=327.2 kV=0.23 kW=0.387 PF=1.0 vminpu=0.6 vmaxpu=2 yearly=Shape_127
New Load.Load_128 phases=1 bus1=337.2 kV=0.23 kW=0.387 PF=1.0 vminpu=0.6 vmaxpu=2 yearly=Shape_128
New Load.Load_129 phases=1 bus1=342.2 kV=0.23 kW=0.387 PF=1.0 vminpu=0.6 vmaxpu=2 yearly=Shape_129
New Load.Load_130 phases=1 bus1=349.3 kV=0.23 kW=0.387 PF=1.0 vminpu=0.6 vmaxpu=2 yearly=Shape_130
New Load.Load_131 phases=1 bus1=387.3 kV=0.23 kW=0.387 PF=1.0 vminpu=0.6 vmaxpu=2 yearly=Shape_131
New Load.Load_132 phases=1 bus1=388.3 kV=0.23 kW=0.387 PF=1.0 vminpu=0.6 vmaxpu=2 yearly=Shape_132
New Load.Load_133 phases=1 bus1=406.1 kV=0.23 kW=0.387 PF=1.0 vminpu=0.6 vmaxpu=2 yearly=Shape_133
New Load.Load_134 phases=1 bus1=458.2 kV=0.23 kW=0.387 PF=1.0 vminpu=0.6 vmaxpu=2 yearly=Shape_134
New Load.Load_135 phases=1 bus1=502.3 kV=0.23 kW=0.387 PF=1.0 vminpu=0.6 vmaxpu=2 yearly=Shape_135
New Load.Load_136 phases=1 bus1=522.1 kV=0.23 kW=0.387 PF=1.0 vminpu=0.6 vmaxpu=2 yearly=Shape_136
New Load.Load_137 phases=1 bus1=539.2 kV=0.23 kW=0.387 PF=1.0 vminpu=0.6 vmaxpu=2 yearly=Shape_137
New Load.Load_138 phases=1 bus1=556.2 kV=0.23 kW=0.387 PF=1.0 vminpu=0.6 vmaxpu=2 yearly=Shape_138
New Load.Load_139 phases=1 bus1=562.3 kV=0.23 kW=0.387 PF=1.0 vminpu=0.6 vmaxpu=2 yearly=Shape_139
New Load.Load_140 phases=1 bus1=563.3 kV=0.23 kW=0.387 PF=1.0 vminpu=0.6 vmaxpu=2 yearly=Shape_140
New Load.Load_141 phases=1 bus1=611.3 kV=0.23 kW=0.387 PF=1.0 vminpu=0.6 vmaxpu=2 yearly=Shape_141
New Load.Load_142 phases=1 bus1=614.2 kV=0.23 kW=0.387 PF=1.0 vminpu=0.6 vmaxpu=2 yearly=Shape_142
New Load.Load_143 phases=1 bus1=619.2 kV=0.23 kW=0.387 PF=1.0 vminpu=0.6 vmaxpu=2 yearly=Shape_143
New Load.Load_144 phases=1 bus1=629.3 kV=0.23 kW=0.387 PF=1.0 vminpu=0.6 vmaxpu=2 yearly=Shape_144
New Load.Load_145 phases=1 bus1=639.1 kV=0.23 kW=0.387 PF=1.0 vminpu=0.6 vmaxpu=2 yearly=Shape_145
New Load.Load_146 phases=1 bus1=676.1 kV=0.23 kW=0.387 PF=1.0 vminpu=0.6 vmaxpu=2 yearly=Shape_146
New Load.Load_147 phases=1 bus1=682.1 kV=0.23 kW=0.387 PF=1.0 vminpu=0.6 vmaxpu=2 yearly=Shape_147
New Load.Load_148 phases=1 bus1=688.1 kV=0.23 kW=0.387 PF=1.0 vminpu=0.6 vmaxpu=2 yearly=Shape_148
New Load.Load_149 phases=1 bus1=701.2 kV=0.23 kW=0.387 PF=1.0 vminpu=0.6 vmaxpu=2 yearly=Shape_149
New Load.Load_150 phases=1 bus1=702.1 kV=0.23 kW=0.387 PF=1.0 vminpu=0.6 vmaxpu=2 yearly=Shape_150
New Load.Load_151 phases=1 bus1=755.1 kV=0.23 kW=0.387 PF=1.0 vminpu=0.6 vmaxpu=2 yearly=Shape_151
New Load.Load_152 phases=1 bus1=778.2 kV=0.23 kW=0.387 PF=1.0 vminpu=0.6 vmaxpu=2 yearly=Shape_152
New Load.Load_153 phases=1 bus1=780.2 kV=0.23 kW=0.387 PF=1.0 vminpu=0.6 vmaxpu=2 yearly=Shape_153
New Load.Load_154 phases=1 bus1=785.1 kV=0.23 kW=0.387 PF=1.0 vminpu=0.6 vmaxpu=2 yearly=Shape_154
New Load.Load_155 phases=1 bus1=813.1 kV=0.23 kW=0.387 PF=1.0 vminpu=0.6 vmaxpu=2 yearly=Shape_155
New Load.Load_156 phases=1 bus1=817.3 kV=0.23 kW=0.387 PF=1.0 vminpu=0.6 vmaxpu=2 yearly=Shape_156
New Load.Load_157 phases=1 bus1=835.2 kV=0.23 kW=0.387 PF=1.0 vminpu=0.6 vmaxpu=2 yearly=Shape_157
New Load.Load_158 phases=1 bus1=860.3 kV=0.23 kW=0.387 PF=1.0 vminpu=0.6 vmaxpu=2 yearly=Shape_158
New Load.Load_159 phases=1 bus1=861.3 kV=0.23 kW=0.387 PF=1.0 vminpu=0.6 vmaxpu=2 yearly=Shape_159
New Load.Load_160 phases=1 bus1=886.1 kV=0.23 kW=0.387 PF=1.0 vminpu=0.6 vmaxpu=2 yearly=Shape_160
New Load.Load_161 phases=1 bus1=896.3 kV=0.23 kW=0.387 PF=1.0 vminpu=0.6 vmaxpu=2 yearly=Shape_161
New Load.Load_162 phases=1 bus1=898.3 kV=0.23 kW=0.387 PF=1.0 vminpu=0.6 vmaxpu=2 yearly=Shape_162
New Load.Load_163 phases=1 bus1=899.1 kV=0.23 kW=0.387 PF=1.0 vminpu=0.6 vmaxpu=2 yearly=Shape_163
New Load.Load_164 phases=1 bus1=900.3 kV=0.23 kW=0.387 PF=1.0 vminpu=0.6 vmaxpu=2 yearly=Shape_164
New Load.Load_165 phases=1 bus1=906.3 kV=0.23 kW=0.387 PF=1.0 vminpu=0.6 vmaxpu=2 yearly=Shape_165
