opendss_models_for_tests/load_pv_battery_self_consumption_invcon/PVSystemsMaximum-Self-Consumption.txt
New PVSystem.PV_3 Phases=1 Bus1=70.1 kV=0.23 kVA=5.995201748054213 Pmpp=5.995201748054213 temperature=25 PF=1 PFpriority=yes vmaxpu=1.3 vminpu=0.8 %cutin=0 %cutout=0 irrad=1.0 effcurve=Ideal P-TCurve=Tideal VarFollowInverter=true Tyearly=Temp yearly=Solar_3
New PVSystem.PV_8 Phases=1 Bus1=208.3 kV=0.23 kVA=5.999744643815369 Pmpp=5.999744643815369 temperature=25 PF=1 PFpriority=yes vmaxpu=1.3 vminpu=0.8 %cutin=0 %cutout=0 irrad=1.0 effcurve=Ideal P-TCurve=Tideal VarFollowInverter=true Tyearly=Temp yearly=Solar_8
New PVSystem.PV_10 Phases=1 Bus1=248.2 kV=0.23 kVA=5.996649779876293 Pmpp=5.996649779876293 temperature=25 PF=1 PFpriority=yes vmaxpu=1.3 vminpu=0.8 %cutin=0 %cutout=0 irrad=1.0 effcurve=Ideal P-TCurve=Tideal VarFollowInverter=true Tyearly=Temp yearly=Solar_10
New PVSystem.PV_14 Phases=1 Bus1=289.1 kV=0.23 kVA=5.998007999999924 Pmpp=5.998007999999924 temperature=25 PF=1 PFpriority=yes vmaxpu=1.3 vminpu=0.8 %cutin=0 %cutout=0 irrad=1.0 effcurve=Ideal P-TCurve=Tideal VarFollowInverter=true Tyearly=Temp yearly=Solar_14
New PVSystem.PV_17 Phases=1 Bus1=327.3 kV=0.23 kVA=5.998269239999977 Pmpp=5.998269239999977 temperature=25 PF=1 PFpriority=yes vmaxpu=1.3 vminpu=0.8 %cutin=0 %cutout=0 irrad=1.0 effcurve=Ideal P-TCurve=Tideal VarFollowInverter=true Tyearly=Temp yearly=Solar_17
New PVSystem.PV_20 Phases=1 Bus1=349.1 kV=0.23 kVA=5.999580774770253 Pmpp=5.999580774770253 temperature=25 PF=1 PFpriority=yes vmaxpu=1.3 vminpu=0.8 %cutin=0 %cutout=0 irrad=1.0 effcurve=Ideal P-TCurve=Tideal VarFollowInverter=true Tyearly=Temp yearly=Solar_20
New PVSystem.PV_22 Phases=1 Bus1=388.1 kV=0.23 kVA=5.998113 Pmpp=5.998113 temperature=25 PF=1 PFpriority=yes vmaxpu=1.3 vminpu=0.8 %cutin=0 %cutout=0 irrad=1.0 effcurve=Ideal P-TCurve=Tideal VarFollowInverter=true Tyearly=Temp yearly=Solar_22
New PVSystem.PV_32 Phases=1 Bus1=614.3 kV=0.23 kVA=5.999133809996302 Pmpp=5.999133809996302 temperature=25 PF=1 PFpriority=yes vmaxpu=1.3 vminpu=0.8 %cutin=0 %cutout=0 irrad=1.0 effcurve=Ideal P-TCurve=Tideal VarFollowInverter=true Tyearly=Temp yearly=Solar_32
New PVSystem.PV_37 Phases=1 Bus1=682.2 kV=0.23 kVA=5.992881079063025 Pmpp=5.992881079063025 temperature=25 PF=1 PFpriority=yes vmaxpu=1.3 vminpu=0.8 %cutin=0 %cutout=0 irrad=1.0 effcurve=Ideal P-TCurve=Tideal VarFollowInverter=true Tyearly=Temp yearly=Solar_37
New PVSystem.PV_44 Phases=1 Bus1=785.2 kV=0.23 kVA=5.99786318999804 Pmpp=5.99786318999804 temperature=25 PF=1 PFpriority=yes vmaxpu=1.3 vminpu=0.8 %cutin=0 %cutout=0 irrad=1.0 effcurve=Ideal P-TCurve=Tideal VarFollowInverter=true Tyearly=Temp yearly=Solar_44
New PVSystem.PV_51 Phases=1 Bus1=896.1 kV=0.23 kVA=5.999173315053761 Pmpp=5.999173315053761 temperature=25 PF=1 PFpriority=yes vmaxpu=1.3 vminpu=0.8 %cutin=0 %cutout=0 irrad=1.0 effcurve=Ideal P-TCurve=Tideal VarFollowInverter=true Tyearly=Temp yearly=Solar_51
New PVSystem.PV_61 Phases=1 Bus1=83.3 kV=0.23 kVA=5.998958866538661 Pmpp=5.998958866538661 temperature=25 PF=1 PFpriority=yes vmaxpu=1.3 vminpu=0.8 %cutin=0 %cutout=0 irrad=1.0 effcurve=Ideal P-TCurve=Tideal VarFollowInverter=true Tyearly=Temp yearly=Solar_61
New PVSystem.PV_70 Phases=1 Bus1=314.3 kV=0.23 kVA=5.997134428084484 Pmpp=5.997134428084484 temperature=25 PF=1 PFpriority=yes vmaxpu=1.3 vminpu=0.8 %cutin=0 %cutout=0 irrad=1.0 effcurve=Ideal P-TCurve=Tideal VarFollowInverter=true Tyearly=Temp yearly=Solar_70
New PVSystem.PV_75 Phases=1 Bus1=349.2 kV=0.23 kVA=5.996691779828011 Pmpp=5.996691779828011 temperature=25 PF=1 PFpriority=yes vmaxpu=1.3 vminpu=0.8 %cutin=0 %cutout=0 irrad=1.0 effcurve=Ideal P-TCurve=Tideal VarFollowInverter=true Tyearly=Temp yearly=Solar_75
New PVSystem.PV_89 Phases=1 Bus1=629.2 kV=0.23 kVA=5.992961609273099 Pmpp=5.992961609273099 temperature=25 PF=1 PFpriority=yes vmaxpu=1.3 vminpu=0.8 %cutin=0 %cutout=0 irrad=1.0 effcurve=Ideal P-TCurve=Tideal VarFollowInverter=true Tyearly=Temp yearly=Solar_89
New PVSystem.PV_101 Phases=1 Bus1=817.2 kV=0.23 kVA=5.999050769999999 Pmpp=5.999050769999999 temperature=25 PF=1 PFpriority=yes vmaxpu=1.3 vminpu=0.8 %cutin=0 %cutout=0 irrad=1.0 effcurve=Ideal P-TCurve=Tideal VarFollowInverter=true Tyearly=Temp yearly=Solar_101
New PVSystem.PV_105 Phases=1 Bus1=886.3 kV=0.23 kVA=5.992493789882215 Pmpp=5.992493789882215 temperature=25 PF=1 PFpriority=yes vmaxpu=1.3 vminpu=0.8 %cutin=0 %cutout=0 irrad=1.0 effcurve=Ideal P-TCurve=Tideal VarFollowInverter=true Tyearly=Temp yearly=Solar_105
New PVSystem.PV_117 Phases=1 Bus1=178.1 kV=0.23 kVA=5.99993508 Pmpp=5.99993508 temperature=25 PF=1 PFpriority=yes vmaxpu=1.3 vminpu=0.8 %cutin=0 %cutout=0 irrad=1.0 effcurve=Ideal P-TCurve=Tideal VarFollowInverter=true Tyearly=Temp yearly=Solar_117
New PVSystem.PV_120 Phases=1 Bus1=248.1 kV=0.23 kVA=5.992204499878472 Pmpp=5.992204499878472 temperature=25 PF=1 PFpriority=yes vmaxpu=1.3 vminpu=0.8 %cutin=0 %cutout=0 irrad=1.0 effcurve=Ideal P-TCurve=Tideal VarFollowInverter=true Tyearly=Temp yearly=Solar_120
New PVSystem.PV_127 Phases=1 Bus1=327.2 kV=0.23 kVA=5.998536957280884 Pmpp=5.998536957280884 temperature=25 PF=1 PFpriority=yes vmaxpu=1.3 vminpu=0.8 %cutin=0 %cutout=0 irrad=1.0 effcurve=Ideal P-TCurve=Tideal VarFollowInverter=true Tyearly=Temp yearly=Solar_127
New PVSystem.PV_134 Phases=1 Bus1=458.2 kV=0.23 kVA=5.9897762295952806 Pmpp=5.9897762295952806 temperature=25 PF=1 PFpriority=yes vmaxpu=1.3 vminpu=0.8 %cutin=0 %cutout=0 irrad=1.0 effcurve=Ideal P-TCurve=Tideal VarFollowInverter=true Tyearly=Temp yearly=Solar_134
New PVSystem.PV_135 Phases=1 Bus1=502.3 kV=0.23 kVA=5.990383525732199 Pmpp=5.990383525732199 temperature=25 PF=1 PFpriority=yes vmaxpu=1.3 vminpu=0.8 %cutin=0 %cutout=0 irrad=1.0 effcurve=Ideal P-TCurve=Tideal VarFollowInverter=true Tyearly=Temp yearly=Solar_135
New PVSystem.PV_145 Phases=1 Bus1=639.1 kV=0.23 kVA=5.997552182997699 Pmpp=5.997552182997699 temperature=25 PF=1 PFpriority=yes vmaxpu=1.3 vminpu=0.8 %cutin=0 %cutout=0 irrad=1.0 effcurve=Ideal P-TCurve=Tideal VarFollowInverter=true Tyearly=Temp yearly=Solar_145
New PVSystem.PV_156 Phases=1 Bus1=817.3 kV=0.23 kVA=6.0 Pmpp=6.0 temperature=25 PF=1 PFpriority=yes vmaxpu=1.3 vminpu=0.8 %cutin=0 %cutout=0 irrad=1.0 effcurve=Ideal P-TCurve=Tideal VarFollowInverter=true Tyearly=Temp yearly=Solar_156
New PVSystem.PV_161 Phases=1 Bus1=896.3 kV=0.23 kVA=5.999607544227271 Pmpp=5.999607544227271 temperature=25 PF=1 PFpriority=yes vmaxpu=1.3 vminpu=0.8 %cutin=0 %cutout=0 irrad=1.0 effcurve=Ideal P-TCurve=Tideal VarFollowInverter=true Tyearly=Temp yearly=Solar_161
