opendss_models_for_tests/load_only/Summer_Weekday_Case_VLN_Node.Txt

LINE-GROUND and LINE-LINE VOLTAGES BY BUS & NODE

Bus       Node    VLN (kV)   Angle      pu     Base kV    Node-Node   VLL (kV)  Angle      pu

SOURCEBUS 1       6.3508 /_    0.0   0.99998    11.000        1-2         11 /_   30.0   0.99999
   -      2       6.3508 /_ -120.0   0.99999    11.000        2-3         11 /_  -90.0   0.99999
   -      3       6.3508 /_  120.0   0.99999    11.000        3-1         11 /_  150.0   0.99999
1 ....... 1      0.23094 /_  -30.0   0.99999     0.400        1-2    0.39999 /_    0.0   0.99998
   -      2      0.23094 /_ -150.0   0.99998     0.400        2-3        0.4 /_ -120.0   0.99999
   -      3      0.23094 /_   90.0   0.99999     0.400        3-1        0.4 /_  120.0   0.99999
25 ...... 1      0.22952 /_  -30.4   0.99386     0.400        1-2    0.39799 /_   -0.3   0.99498
   -      2      0.23035 /_ -150.3   0.99745     0.400        2-3    0.39845 /_ -120.3   0.99612
   -      3         0.23 /_   89.8   0.99591     0.400        3-1    0.39845 /_  119.6   0.99611
27 ...... 1      0.22954 /_  -30.4   0.99396     0.400        1-2    0.39795 /_   -0.3   0.99489
   -      2       0.2303 /_ -150.3   0.99723     0.400        2-3    0.39835 /_ -120.3   0.99587
   -      3      0.22989 /_   89.8   0.99546     0.400        3-1    0.39835 /_  119.7   0.99588
32 ...... 1      0.22869 /_  -30.7   0.99026     0.400        1-2    0.39685 /_   -0.5   0.99213
   -      2      0.23005 /_ -150.5   0.99613     0.400        2-3    0.39758 /_ -120.4   0.99396
   -      3      0.22949 /_   89.7   0.99373     0.400        3-1    0.39761 /_  119.4   0.99402
34 ...... 1      0.22955 /_  -30.4   0.99399     0.400        1-2    0.39793 /_   -0.3   0.99483
   -      2      0.23028 /_ -150.3   0.99713     0.400        2-3    0.39827 /_ -120.3   0.99568
   -      3       0.2298 /_   89.8   0.99505     0.400        3-1    0.39827 /_  119.7   0.99566
70 ...... 1      0.22956 /_  -30.4   0.99401     0.400        1-2    0.39792 /_   -0.3   0.99479
   -      2      0.23024 /_ -150.3   0.99696     0.400        2-3    0.39825 /_ -120.3   0.99564
   -      3      0.22983 /_   89.8   0.99519     0.400        3-1    0.39829 /_  119.7   0.99572
36 ...... 1      0.22869 /_  -30.7   0.99027     0.400        1-2    0.39684 /_   -0.5    0.9921
   -      2      0.23004 /_ -150.5   0.99608     0.400        2-3    0.39755 /_ -120.4   0.99388
   -      3      0.22945 /_   89.7   0.99356     0.400        3-1    0.39757 /_  119.4   0.99393
59 ...... 1       0.2273 /_  -31.1   0.98422     0.400        1-2    0.39496 /_   -0.8   0.98739
   -      2      0.22955 /_ -150.8     0.994     0.400        2-3    0.39615 /_ -120.7   0.99036
   -      3      0.22867 /_   89.6   0.99018     0.400        3-1    0.39624 /_  119.1   0.99061
83 ...... 1      0.22869 /_  -30.7   0.99025     0.400        1-2    0.39683 /_   -0.5   0.99208
   -      2      0.23003 /_ -150.5   0.99608     0.400        2-3    0.39754 /_ -120.4   0.99386
   -      3      0.22944 /_   89.7   0.99352     0.400        3-1    0.39756 /_  119.4    0.9939
47 ...... 1       0.2287 /_  -30.7    0.9903     0.400        1-2    0.39682 /_   -0.5   0.99206
   -      2      0.23002 /_ -150.5     0.996     0.400        2-3     0.3975 /_ -120.4   0.99376
   -      3       0.2294 /_   89.7   0.99333     0.400        3-1    0.39752 /_  119.4   0.99381
101 ..... 1      0.22644 /_  -31.4   0.98052     0.400        1-2    0.39379 /_   -1.0   0.98449
   -      2      0.22923 /_ -151.0    0.9926     0.400        2-3    0.39524 /_ -120.8   0.98811
   -      3      0.22817 /_   89.5   0.98803     0.400        3-1     0.3954 /_  118.9    0.9885
66 ...... 1      0.22722 /_  -31.1   0.98387     0.400        1-2    0.39489 /_   -0.8   0.98723
   -      2      0.22958 /_ -150.8    0.9941     0.400        2-3    0.39612 /_ -120.7   0.99031
   -      3      0.22863 /_   89.6      0.99     0.400        3-1    0.39616 /_  119.1   0.99041
73 ...... 1      0.22718 /_  -31.1   0.98371     0.400        1-2    0.39486 /_   -0.8   0.98714
   -      2      0.22959 /_ -150.8   0.99413     0.400        2-3    0.39611 /_ -120.7   0.99027
   -      3      0.22861 /_   89.6   0.98991     0.400        3-1    0.39612 /_  119.1   0.99031
74 ...... 1       0.2272 /_  -31.1   0.98379     0.400        1-2    0.39487 /_   -0.8   0.98718
   -      2      0.22958 /_ -150.8   0.99413     0.400        2-3    0.39612 /_ -120.7    0.9903
   -      3      0.22862 /_   89.6   0.98996     0.400        3-1    0.39614 /_  119.1   0.99036
155 ..... 1      0.22606 /_  -31.5   0.97889     0.400        1-2    0.39331 /_   -1.0   0.98328
   -      2       0.2291 /_ -151.0   0.99205     0.400        2-3    0.39491 /_ -120.9   0.98727
   -      3      0.22799 /_   89.5   0.98724     0.400        3-1    0.39503 /_  118.9   0.98757
114 ..... 1      0.22599 /_  -31.5   0.97857     0.400        1-2    0.39317 /_   -1.1   0.98293
   -      2      0.22904 /_ -151.1   0.99176     0.400        2-3    0.39475 /_ -120.9   0.98687
   -      3       0.2279 /_   89.4   0.98685     0.400        3-1    0.39493 /_  118.8   0.98733
127 ..... 1      0.22598 /_  -31.5   0.97852     0.400        1-2    0.39314 /_   -1.1   0.98284
   -      2      0.22899 /_ -151.1   0.99155     0.400        2-3    0.39469 /_ -120.9   0.98672
   -      3      0.22789 /_   89.4   0.98679     0.400        3-1     0.3949 /_  118.8   0.98724
247 ..... 1       0.2246 /_  -32.0   0.97255     0.400        1-2    0.39126 /_   -1.4   0.97815
   -      2       0.2286 /_ -151.4   0.98985     0.400        2-3    0.39334 /_ -121.2   0.98336
   -      3      0.22705 /_   89.2   0.98316     0.400        3-1    0.39357 /_  118.4   0.98393
289 ..... 1      0.22592 /_  -31.5   0.97825     0.400        1-2     0.3929 /_   -1.1   0.98224
   -      2      0.22873 /_ -151.1   0.99043     0.400        2-3    0.39436 /_ -120.9   0.98589
   -      3      0.22776 /_   89.4   0.98621     0.400        3-1    0.39468 /_  118.8   0.98671
145 ..... 1      0.22595 /_  -31.5   0.97838     0.400        1-2    0.39305 /_   -1.1   0.98263
   -      2      0.22887 /_ -151.1   0.99105     0.400        2-3    0.39456 /_ -120.9   0.98639
   -      3      0.22787 /_   89.4   0.98669     0.400        3-1    0.39482 /_  118.8   0.98704
166 ..... 1      0.22591 /_  -31.5    0.9782     0.400        1-2    0.39299 /_   -1.1   0.98247
   -      2      0.22879 /_ -151.1   0.99069     0.400        2-3    0.39446 /_ -120.9   0.98616
   -      3      0.22787 /_   89.4   0.98672     0.400        3-1    0.39477 /_  118.8   0.98693
261 ..... 1      0.22596 /_  -31.5   0.97842     0.400        1-2    0.39302 /_   -1.1   0.98254
   -      2      0.22882 /_ -151.1   0.99081     0.400        2-3    0.39448 /_ -120.9   0.98619
   -      3      0.22781 /_   89.4   0.98644     0.400        3-1    0.39475 /_  118.8   0.98689
178 ..... 1      0.22582 /_  -31.5   0.97782     0.400        1-2    0.39292 /_   -1.0   0.98229
   -      2      0.22884 /_ -151.0    0.9909     0.400        2-3     0.3946 /_ -120.9    0.9865
   -      3      0.22797 /_   89.5   0.98715     0.400        3-1    0.39481 /_  118.8   0.98702
171 ..... 1      0.22579 /_  -31.5   0.97771     0.400        1-2    0.39296 /_   -1.0   0.98241
   -      2      0.22904 /_ -151.0   0.99177     0.400        2-3    0.39468 /_ -120.9    0.9867
   -      3      0.22783 /_   89.4   0.98655     0.400        3-1    0.39475 /_  118.8   0.98686
283 ..... 1      0.22584 /_  -31.5   0.97794     0.400        1-2    0.39285 /_   -1.1   0.98213
   -      2      0.22865 /_ -151.1   0.99009     0.400        2-3    0.39433 /_ -120.9   0.98581
   -      3      0.22787 /_   89.4   0.98672     0.400        3-1     0.3947 /_  118.8   0.98675
196 ..... 1      0.22547 /_  -31.6    0.9763     0.400        1-2    0.39263 /_   -1.1   0.98157
   -      2      0.22906 /_ -151.1   0.99186     0.400        2-3    0.39454 /_ -120.9   0.98636
   -      3      0.22776 /_   89.5   0.98623     0.400        3-1    0.39456 /_  118.8   0.98639
188 ..... 1       0.2258 /_  -31.5   0.97774     0.400        1-2    0.39279 /_   -1.0   0.98197
   -      2      0.22884 /_ -151.0    0.9909     0.400        2-3    0.39435 /_ -120.9   0.98588
   -      3      0.22758 /_   89.4   0.98546     0.400        3-1    0.39447 /_  118.8   0.98618
208 ..... 1      0.22582 /_  -31.5   0.97781     0.400        1-2    0.39274 /_   -1.0   0.98184
   -      2      0.22879 /_ -151.0    0.9907     0.400        2-3    0.39419 /_ -120.9   0.98547
   -      3      0.22738 /_   89.4   0.98457     0.400        3-1    0.39428 /_  118.8   0.98571
264 ..... 1      0.22576 /_  -31.5   0.97758     0.400        1-2    0.39266 /_   -1.1   0.98165
   -      2      0.22869 /_ -151.0   0.99025     0.400        2-3     0.3942 /_ -120.9    0.9855
   -      3      0.22757 /_   89.4    0.9854     0.400        3-1    0.39441 /_  118.8   0.98602
225 ..... 1      0.22527 /_  -31.6   0.97543     0.400        1-2    0.39242 /_   -1.1   0.98105
   -      2      0.22903 /_ -151.1   0.99172     0.400        2-3    0.39447 /_ -120.9   0.98617
   -      3      0.22775 /_   89.5   0.98618     0.400        3-1    0.39442 /_  118.8   0.98604
226 ..... 1      0.22532 /_  -31.6   0.97567     0.400        1-2    0.39247 /_   -1.1   0.98119
   -      2      0.22907 /_ -151.1    0.9919     0.400        2-3    0.39448 /_ -120.9    0.9862
   -      3      0.22772 /_   89.5   0.98606     0.400        3-1    0.39447 /_  118.8   0.98617
241 ..... 1      0.22462 /_  -31.6   0.97264     0.400        1-2    0.39181 /_   -1.0   0.97952
   -      2      0.22906 /_ -151.1   0.99185     0.400        2-3    0.39419 /_ -120.9   0.98548
   -      3      0.22756 /_   89.5   0.98535     0.400        3-1     0.3939 /_  118.7   0.98475
248 ..... 1      0.22424 /_  -31.7   0.97098     0.400        1-2    0.39149 /_   -1.0   0.97873
   -      2      0.22915 /_ -151.1   0.99227     0.400        2-3    0.39414 /_ -120.9   0.98536
   -      3      0.22745 /_   89.6   0.98489     0.400        3-1    0.39358 /_  118.7   0.98395
249 ..... 1       0.2246 /_  -31.6   0.97257     0.400        1-2    0.39171 /_   -1.1   0.97927
   -      2      0.22893 /_ -151.1   0.99127     0.400        2-3    0.39406 /_ -120.9   0.98516
   -      3      0.22755 /_   89.5   0.98532     0.400        3-1    0.39386 /_  118.7   0.98465
387 ..... 1      0.22443 /_  -32.0   0.97181     0.400        1-2     0.3911 /_   -1.4   0.97776
   -      2      0.22861 /_ -151.4    0.9899     0.400        2-3     0.3933 /_ -121.2   0.98324
   -      3      0.22701 /_   89.3   0.98297     0.400        3-1    0.39343 /_  118.4   0.98357
263 ..... 1      0.22441 /_  -32.1   0.97171     0.400        1-2    0.39099 /_   -1.4   0.97748
   -      2      0.22853 /_ -151.4   0.98956     0.400        2-3    0.39314 /_ -121.2   0.98286
   -      3      0.22693 /_   89.2   0.98264     0.400        3-1    0.39338 /_  118.4   0.98345
276 ..... 1      0.22595 /_  -31.5   0.97841     0.400        1-2      0.393 /_   -1.1   0.98249
   -      2       0.2288 /_ -151.1   0.99071     0.400        2-3    0.39445 /_ -120.9   0.98613
   -      3       0.2278 /_   89.4   0.98641     0.400        3-1    0.39474 /_  118.8   0.98685
314 ..... 1      0.22596 /_  -31.5   0.97844     0.400        1-2      0.393 /_   -1.1    0.9825
   -      2       0.2288 /_ -151.1   0.99072     0.400        2-3    0.39444 /_ -120.9    0.9861
   -      3      0.22778 /_   89.4    0.9863     0.400        3-1    0.39472 /_  118.8   0.98681
342 ..... 1      0.22427 /_  -32.1   0.97112     0.400        1-2    0.39086 /_   -1.4   0.97714
   -      2      0.22854 /_ -151.4    0.9896     0.400        2-3    0.39307 /_ -121.2   0.98268
   -      3      0.22684 /_   89.2   0.98224     0.400        3-1    0.39321 /_  118.4   0.98303
280 ..... 1      0.22417 /_  -32.1    0.9707     0.400        1-2    0.39067 /_   -1.5   0.97668
   -      2      0.22845 /_ -151.5    0.9892     0.400        2-3     0.3929 /_ -121.3   0.98225
   -      3      0.22679 /_   89.2   0.98202     0.400        3-1    0.39315 /_  118.3   0.98287
310 ..... 1       0.2238 /_  -32.2    0.9691     0.400        1-2    0.39021 /_   -1.5   0.97554
   -      2      0.22844 /_ -151.5   0.98918     0.400        2-3    0.39266 /_ -121.3   0.98165
   -      3      0.22653 /_   89.2   0.98092     0.400        3-1    0.39275 /_  118.3   0.98188
373 ..... 1      0.22398 /_  -32.2   0.96987     0.400        1-2    0.39041 /_   -1.5   0.97603
   -      2       0.2283 /_ -151.5   0.98856     0.400        2-3    0.39263 /_ -121.3   0.98158
   -      3      0.22671 /_   89.2   0.98166     0.400        3-1    0.39294 /_  118.3   0.98235
320 ..... 1      0.22584 /_  -31.5   0.97791     0.400        1-2    0.39281 /_   -1.1   0.98201
   -      2      0.22859 /_ -151.1   0.98984     0.400        2-3    0.39426 /_ -120.9   0.98564
   -      3      0.22785 /_   89.4   0.98661     0.400        3-1    0.39466 /_  118.8   0.98666
327 ..... 1      0.22582 /_  -31.5   0.97781     0.400        1-2     0.3928 /_   -1.1     0.982
   -      2      0.22861 /_ -151.1   0.98992     0.400        2-3    0.39429 /_ -120.9   0.98572
   -      3      0.22788 /_   89.4   0.98674     0.400        3-1    0.39468 /_  118.8    0.9867
336 ..... 1      0.22361 /_  -32.2   0.96828     0.400        1-2    0.39002 /_   -1.5   0.97504
   -      2      0.22842 /_ -151.5   0.98907     0.400        2-3    0.39255 /_ -121.3   0.98138
   -      3      0.22648 /_   89.2   0.98067     0.400        3-1    0.39258 /_  118.3   0.98145
325 ..... 1      0.22342 /_  -32.3   0.96745     0.400        1-2    0.38973 /_   -1.5   0.97434
   -      2      0.22844 /_ -151.5   0.98918     0.400        2-3     0.3924 /_ -121.3     0.981
   -      3      0.22624 /_   89.2   0.97965     0.400        3-1    0.39232 /_  118.2    0.9808
337 ..... 1      0.22343 /_  -32.3    0.9675     0.400        1-2    0.38968 /_   -1.5   0.97421
   -      2      0.22836 /_ -151.5   0.98882     0.400        2-3    0.39229 /_ -121.3   0.98073
   -      3      0.22618 /_   89.2    0.9794     0.400        3-1    0.39226 /_  118.2   0.98064
332 ..... 1      0.22318 /_  -32.4   0.96642     0.400        1-2    0.38944 /_   -1.5    0.9736
   -      2      0.22845 /_ -151.5   0.98924     0.400        2-3    0.39225 /_ -121.3   0.98064
   -      3      0.22606 /_   89.2   0.97889     0.400        3-1    0.39206 /_  118.2   0.98014
406 ..... 1       0.2232 /_  -32.4    0.9665     0.400        1-2    0.38935 /_   -1.5   0.97338
   -      2      0.22832 /_ -151.5   0.98867     0.400        2-3    0.39206 /_ -121.3   0.98014
   -      3      0.22593 /_   89.2   0.97831     0.400        3-1    0.39192 /_  118.2    0.9798
453 ..... 1      0.22181 /_  -32.7   0.96046     0.400        1-2     0.3878 /_   -1.6   0.96951
   -      2      0.22861 /_ -151.5   0.98991     0.400        2-3    0.39152 /_ -121.4   0.97881
   -      3      0.22514 /_   89.2   0.97488     0.400        3-1    0.39068 /_  118.0   0.97669
349 ..... 1      0.22358 /_  -32.2   0.96815     0.400        1-2    0.38995 /_   -1.5   0.97488
   -      2      0.22836 /_ -151.5   0.98883     0.400        2-3    0.39248 /_ -121.3    0.9812
   -      3      0.22645 /_   89.2   0.98057     0.400        3-1    0.39253 /_  118.3   0.98133
388 ..... 1      0.22335 /_  -32.3   0.96714     0.400        1-2    0.38977 /_   -1.5   0.97443
   -      2      0.22844 /_ -151.5   0.98916     0.400        2-3    0.39248 /_ -121.3   0.98119
   -      3       0.2264 /_   89.2   0.98035     0.400        3-1    0.39235 /_  118.3   0.98088
391 ..... 1       0.2238 /_  -32.2   0.96908     0.400        1-2    0.39016 /_   -1.6   0.97541
   -      2      0.22815 /_ -151.6   0.98792     0.400        2-3    0.39237 /_ -121.3   0.98093
   -      3      0.22663 /_   89.1   0.98132     0.400        3-1    0.39274 /_  118.2   0.98185
458 ..... 1      0.22375 /_  -32.2   0.96887     0.400        1-2    0.39011 /_   -1.5   0.97528
   -      2      0.22818 /_ -151.5   0.98803     0.400        2-3    0.39244 /_ -121.3   0.98109
   -      3      0.22664 /_   89.2   0.98137     0.400        3-1    0.39271 /_  118.3   0.98178
530 ..... 1       0.2237 /_  -32.2   0.96864     0.400        1-2    0.38996 /_   -1.6   0.97489
   -      2      0.22797 /_ -151.6   0.98716     0.400        2-3    0.39216 /_ -121.3   0.98039
   -      3      0.22657 /_   89.1   0.98106     0.400        3-1    0.39258 /_  118.2   0.98145
505 ..... 1       0.2232 /_  -32.4   0.96648     0.400        1-2    0.38935 /_   -1.8   0.97337
   -      2       0.2277 /_ -151.8   0.98598     0.400        2-3    0.39154 /_ -121.5   0.97886
   -      3      0.22635 /_   89.0   0.98011     0.400        3-1    0.39208 /_  118.1   0.98021
475 ..... 1       0.2215 /_  -32.8   0.95912     0.400        1-2    0.38739 /_   -1.6   0.96848
   -      2      0.22857 /_ -151.5   0.98976     0.400        2-3    0.39127 /_ -121.5   0.97818
   -      3      0.22488 /_   89.2   0.97376     0.400        3-1    0.39029 /_  118.0   0.97573
629 ..... 1      0.22094 /_  -32.8   0.95672     0.400        1-2    0.38712 /_   -1.5   0.96779
   -      2      0.22888 /_ -151.5   0.99108     0.400        2-3    0.39142 /_ -121.4   0.97856
   -      3      0.22483 /_   89.2   0.97356     0.400        3-1     0.3899 /_  118.0   0.97475
508 ..... 1      0.22129 /_  -32.8    0.9582     0.400        1-2    0.38707 /_   -1.6   0.96768
   -      2      0.22848 /_ -151.6   0.98934     0.400        2-3    0.39102 /_ -121.5   0.97756
   -      3      0.22468 /_   89.2   0.97289     0.400        3-1    0.38997 /_  117.9   0.97494
484 ..... 1      0.22123 /_  -32.8   0.95797     0.400        1-2    0.38715 /_   -1.6   0.96788
   -      2      0.22864 /_ -151.5   0.99003     0.400        2-3    0.39117 /_ -121.5   0.97792
   -      3      0.22473 /_   89.2    0.9731     0.400        3-1    0.39001 /_  118.0   0.97502
563 ..... 1      0.22114 /_  -32.8   0.95756     0.400        1-2    0.38706 /_   -1.6   0.96766
   -      2      0.22866 /_ -151.5   0.99011     0.400        2-3    0.39111 /_ -121.5   0.97777
   -      3      0.22463 /_   89.2   0.97268     0.400        3-1    0.38986 /_  117.9   0.97466
502 ..... 1      0.22109 /_  -32.8   0.95734     0.400        1-2    0.38702 /_   -1.6   0.96755
   -      2      0.22865 /_ -151.5   0.99007     0.400        2-3    0.39113 /_ -121.5   0.97782
   -      3      0.22469 /_   89.2   0.97294     0.400        3-1    0.38988 /_  117.9   0.97471
522 ..... 1      0.22308 /_  -32.4   0.96597     0.400        1-2    0.38918 /_   -1.8   0.97296
   -      2      0.22762 /_ -151.8    0.9856     0.400        2-3    0.39144 /_ -121.5   0.97859
   -      3      0.22634 /_   89.0   0.98007     0.400        3-1    0.39198 /_  118.1   0.97996
578 ..... 1      0.22314 /_  -32.4   0.96621     0.400        1-2    0.38926 /_   -1.8   0.97315
   -      2      0.22765 /_ -151.8   0.98577     0.400        2-3    0.39146 /_ -121.5   0.97864
   -      3      0.22632 /_   89.0   0.97998     0.400        3-1    0.39201 /_  118.1   0.98003
559 ..... 1      0.22118 /_  -32.8   0.95776     0.400        1-2    0.38693 /_   -1.6   0.96733
   -      2      0.22849 /_ -151.6   0.98939     0.400        2-3    0.39095 /_ -121.5   0.97738
   -      3      0.22457 /_   89.1   0.97241     0.400        3-1    0.38983 /_  117.9   0.97457
544 ..... 1      0.22114 /_  -32.8   0.95756     0.400        1-2     0.3868 /_   -1.6     0.967
   -      2      0.22829 /_ -151.6   0.98851     0.400        2-3    0.39075 /_ -121.5   0.97687
   -      3      0.22456 /_   89.1   0.97239     0.400        3-1    0.38973 /_  117.9   0.97433
...
